
**** 05/04/22 08:51:17 ****** PSpice Lite (October 2012) ****** ID# 10813 ****

 ** Profile: "SCHEMATIC1-simulace"  [ C:\3b\mynari\04-05-2022\orcad\zesilovac_mynari-PSpiceFiles\SCHEMATIC1\simulace.sim ] 


 ****     CIRCUIT DESCRIPTION


******************************************************************************




** Creating circuit file "simulace.cir" 
** WARNING: THIS AUTOMATICALLY GENERATED FILE MAY BE OVERWRITTEN BY SUBSEQUENT SIMULATIONS

*Libraries: 
* Profile Libraries :
* Local Libraries :
* From [PSPICE NETLIST] section of C:\Users\root\AppData\Roaming\SPB_16.6\cdssetup\OrCAD_PSpice/16.6.0/PSpice.ini file:
.lib "nomd.lib" 

*Analysis directives: 
.AC DEC 10 10 10k
.OPTIONS ADVCONV
.PROBE64 V(alias(*)) I(alias(*)) W(alias(*)) D(alias(*)) NOISE(alias(*)) 
.INC "..\SCHEMATIC1.net" 



**** INCLUDING SCHEMATIC1.net ****
* source ZESILOVAC_MYNARI
E_U1         VOUT 0 VALUE {LIMIT(V(0,N00225)*1E6,-15V,+15V)}
V_V1         VIN 0 DC 0V AC 1V
+SIN 0V 5V 10k 0 0 0
C_C1         VIN N00188  1694n  TC=0,0 
C_C2         N00225 VOUT  1.8n  TC=0,0 
R_R1         N00188 N00225  4.7k TC=0,0 
R_R2         N00225 VOUT  22.1k TC=0,0 

**** RESUMING simulace.cir ****
.END

**** 05/04/22 08:51:17 ****** PSpice Lite (October 2012) ****** ID# 10813 ****

 ** Profile: "SCHEMATIC1-simulace"  [ C:\3b\mynari\04-05-2022\orcad\zesilovac_mynari-PSpiceFiles\SCHEMATIC1\simulace.sim ] 


 ****     SMALL SIGNAL BIAS SOLUTION       TEMPERATURE =   27.000 DEG C


******************************************************************************



 NODE   VOLTAGE     NODE   VOLTAGE     NODE   VOLTAGE     NODE   VOLTAGE


(  VIN)    0.0000  ( VOUT)    0.0000  (N00188)    0.0000 (N00225)    0.0000 




    VOLTAGE SOURCE CURRENTS
    NAME         CURRENT

    V_V1         0.000E+00

    TOTAL POWER DISSIPATION   0.00E+00  WATTS



          JOB CONCLUDED

**** 05/04/22 08:51:17 ****** PSpice Lite (October 2012) ****** ID# 10813 ****

 ** Profile: "SCHEMATIC1-simulace"  [ C:\3b\mynari\04-05-2022\orcad\zesilovac_mynari-PSpiceFiles\SCHEMATIC1\simulace.sim ] 


 ****     JOB STATISTICS SUMMARY


******************************************************************************



  Total job time (using Solver 1)   =        0.00
